INPUT_FILES/9bus/tests_sama_data_forall_gen/line_data.csv
fbus;tbus;r;x;b;rateA;rateB;rateC;ratio;angle;status;angmin;angmax
1;4;0;0.15;0;250;250;250;1;0;1;-60;60
2;7;0;0.15;0;250;250;250;1;0;1;-60;60
3;9;0;0.15;0;300;300;300;1;0;1;-60;60
4;5;0;0.15;0;250;250;250;1;0;1;-60;60
4;6;0;0.15;0;250;250;250;1;0;1;-60;60
5;7;0;0.15;0;250;250;250;1;0;1;-60;60
6;9;0;0.15;0;150;150;150;1;0;1;-60;60
7;8;0;0.15;0;250;250;250;1;0;1;-60;60
8;9;0;0.15;0;150;150;150;1;0;1;-60;60
